Pcp_File_Version=5
D:\HP Projects\2020 - Response\22_MTHP\10_verification_01_EqPhases_1D_01_pht3d\pht3d_datab.dat
Ca
Cl 
Mg 
Na 
K 
Fe(2)
Fe(3)
Mn(2) 
Al 
Si 
S(6)
Total_H
Total_O
C(4)